-------------------------------------------------------
          Amber 22 SANDER                              2022
          -------------------------------------------------------

  [-O]verwriting output

File Assignments:

 Here is the input file:

Production
 &cntrl
  imin=0,
  ntx=5,
  irest=1,
  nstlim=500000,
  dt=0.002,
  ntf=2,
  ntc=2,
  temp0=300.0,
  ntpr=1000,
  ntwx=2000,
  cut=8.0,
  ntb=2,
  ntp=1,
  ntt=3,
  barostat=1,
  gamma_ln=2.0,
  ig=-1,
 /

--------------------------------------------------------------------------------
   1.  RESOURCE   USE:
--------------------------------------------------------------------------------

 getting box info from netcdf restart file
 NATOM  =    3511 NTYPES =      10 NBONH =    3494 MBONA  =      17
 NTHETH =      22 MTHETA =      24 NPHIH =      35 MPHIA  =      36
 NHPARM =       0 NPARM  =       0 NNB   =    4776 NRES   =    1163
 NBONA  =      17 NTHETA =      24 NPHIA =      36 NUMBND =      18
 NUMANG =      24 NPTRA  =      11 NATYP =      15 NPHB   =       0
 IFBOX  =       2 NMXRS  =      27 IFCAP =       0 NEXTRA =       0
 NCOPY  =       0

     BOX TYPE: TRUNCATED OCTAHEDRON
Note: ig = -1. Setting random seed to   745058 based on wallclock time in microseconds
      and disabling the synchronization of random numbers between tasks
      to improve performance.

--------------------------------------------------------------------------------
   2.  CONTROL  DATA  FOR  THE  RUN
--------------------------------------------------------------------------------

CRO

General flags:
     imin    =       0, nmropt  =       0

Nature and format of input:
     ntx     =       5, irest   =       1, ntrx    =       1

Nature and format of output:
     ntxo    =       2, ntpr    =    1000, ntrx    =       1, ntwr    =  500000
     iwrap   =       0, ntwx    =    2000, ntwv    =       0, ntwe    =       0
     ioutfm  =       1, ntwprt  =       0, idecomp =       0, rbornstat=      0

Potential function:
     ntf     =       2, ntb     =       2, igb     =       0, nsnb    =      25
     ipol    =       0, gbsa    =       0, iesp    =       0
     dielc   =   1.00000, cut     =   8.00000, intdiel =   1.00000

Frozen or restrained atoms:
     ibelly  =       0, ntr     =       0

Molecular dynamics:
     nstlim  =    500000, nscm    =      1000, nrespa  =         1
     t       =   0.00000, dt      =   0.00200, vlimit  =  20.00000

Langevin dynamics temperature regulation:
     ig      =  745058
     temp0   = 300.00000, tempi   =   0.00000, gamma_ln=   2.00000

Pressure regulation:
     ntp     =       1
     pres0   =   1.00000, comp    =  44.60000, taup    =   1.00000

SHAKE:
     ntc     =       2, jfastw  =       0
     tol     =   0.00001

Ewald parameters:
     verbose =       0, ew_type =       0, nbflag  =       1, use_pme =       1
     vdwmeth =       1, eedmeth =       1, netfrc  =       1
     Box X =   37.932   Box Y =   37.932   Box Z =   37.932
     Alpha =  109.471   Beta  =  109.471   Gamma =  109.471
     NFFT1 =   40       NFFT2 =   40       NFFT3 =   40
     Cutoff=    8.000   Tol   =0.100E-04
     Ewald Coefficient =  0.34864
     Interpolation order =    4

--------------------------------------------------------------------------------
   3.  ATOMIC COORDINATES AND VELOCITIES
--------------------------------------------------------------------------------

CRO
 begin time read from input coords =    50.000 ps

 Number of triangulated 3-point waters found:     1161

     Sum of charges from parm topology file =   0.00100100
     Forcing neutrality...

--------------------------------------------------------------------------------
   4.  RESULTS
 NSTEP =     1000   TIME(PS) =      52.000  TEMP(K) =   303.80  PRESS =  -269.3
 Etot   =     -9002.2317  EKtot   =      2124.7799  EPtot      =    -11127.0116
 BOND   =         4.7546  ANGLE   =        20.3666  DIHED      =         5.8736
 1-4 NB =         4.4503  1-4 EEL =       -49.2183  VDWAALS    =      1672.2798
 EELEC  =    -12785.5182  EHBOND  =         0.0000  RESTRAINT  =         0.0000
 EKCMT  =      1072.2709  VIRIAL  =      1301.8334  VOLUME     =     39483.1771
                                                    Density    =         0.8897
 Ewald error estimate:   0.3872E-04
 ------------------------------------------------------------------------------

      A V E R A G E S   O V E R  500000 S T E P S

 NSTEP =   500000   TIME(PS) =    1050.000  TEMP(K) =   299.87  PRESS =    -2.7
 Etot   =     -9175.7787  EKtot   =      2097.2587  EPtot      =    -11273.0374
 BOND   =         5.8027  ANGLE   =        22.1576  DIHED      =         6.0553
 1-4 NB =         5.3361  1-4 EEL =       -49.5594  VDWAALS    =      1649.2433
 EELEC  =    -12912.0730  EHBOND  =         0.0000  RESTRAINT  =         0.0000
 EKCMT  =      1042.3870  VIRIAL  =      1044.7131  VOLUME     =     35595.1487
                                                    Density    =         0.9870
 Ewald error estimate:   0.1590E-03
 ------------------------------------------------------------------------------

      R M S  F L U C T U A T I O N S

 NSTEP =   500000   TIME(PS) =    1050.000  TEMP(K) =     5.00  PRESS =   286.4
 Etot   =        64.5538  EKtot   =        34.9364  EPtot      =        53.2567
 BOND   =         1.9615  ANGLE   =         2.3437  DIHED      =         2.0042
 1-4 NB =         0.6154  1-4 EEL =         0.6950  VDWAALS    =        46.8488
 EELEC  =        79.9114  EHBOND  =         0.0000  RESTRAINT  =         0.0000
 EKCMT  =        24.7058  VIRIAL  =       221.2861  VOLUME     =       312.8040
                                                    Density    =         0.0080
 Ewald error estimate:   0.1198E-03
 ------------------------------------------------------------------------------
